* PSpice Model Editor - Version 17.4.0
*$
*BeginSpec
*IF: (1.2000,0) (1.3000,0) (1.4000,0) (1.5000,0) (1.6000,0) (1.7000,10.000E-6) (1.8000,4.0000E-3) (1.9000,15.000E-3) (2,20.000E-3)
*IF: (2.1000,25.000E-3) (2.2000,34.000E-3) (2.3000,40.000E-3) (2.4000,45.000E-3)
*JC:
*RL:
*RB: Vz=0 Iz=0 Zz=0
*RR: Trr=0 Ifwd=10.000E-3 Irev=10.000E-3 Rl=100
*EndSpec
*BeginTrace
*IF: 1,0,.4,2.4000,1,3,0,0,-1 (27)
*JC: 0,1,.1,10,1,3,0,0,-1 (27)
*RL: 0,0,1,100,1,3,0,0,-1 (27)
*RB: 0,1,100.00E-6,1,1,3,0,0,-1 (27)
*RR: 0,0,-5.0000E-9,20.000E-9,1,3,0,0,-1 (27)
*EndTrace
*BeginParam
*IS=10.000E-21 (10.000E-21,.1,0)
*N=1.7149 (.2,5,0)
*RS=9.4417 (1.0000E-6,100,0)
*IKF=.3006 (0,1.0000E3,0)
*XTI=3 (-100,100,0)
*EG=1.1100 (.1,5.5100,0)
*CJO=1.0000E-12 (10.000E-21,1.0000E-3,0)
*M=.3333 (.1,10,0)
*VJ=.75 (.3905,10,0)
*FC=.5 (1.0000E-3,10,0)
*ISR=100.00E-12 (10.000E-21,.1,0)
*NR=2 (.5,5,0)
*BV=100 (.1,1.0000E6,0)
*IBV=100.00E-6 (1.0000E-9,10,0)
*TT=5.0000E-9 (100.00E-18,1.0000E-3,0)
*EndParam
*DEVICE=led_rosu,D
* led_rosu D model
* created using Model Editor release 17.4.0 on 06/20/22 at 21:44
* The Model Editor is a PSpice product.
.MODEL led_rosu D
+ IS=10.000E-21
+ N=1.7149
+ RS=9.4417
*$
